This namelist contains various input parameters for HYDRO runs

&RUN
tend=1600
noutput=10
nstepmax=10
# dtoutput=4.
/

&MESH
nx=23000
ny=23000
nxystep=1
prt=0
dx=0.05
boundary_left=1
boundary_right=1
boundary_down=1
boundary_up=1
testcase=1
/

&HYDRO
courant_factor=0.8
niter_riemann=10
/
