This namelist contains various input parameters for HYDRO runs

&RUN
tend=40
# noutput=10
nstepmax=81
/

&MESH
nx=400
ny=500
dx=0.05
boundary_left=1
boundary_right=1
boundary_down=1
boundary_up=1
/

&HYDRO
courant_factor=0.8
niter_riemann=10
/
