This namelist contains various input parameters for HYDRO runs

&RUN
tend=40
nstepmax=10
dtoutput=2
/

&MESH
nx=10000
ny=10000
dx=0.05
boundary_left=1
boundary_right=1
boundary_down=1
boundary_up=1
/

&HYDRO
courant_factor=0.8
niter_riemann=10
/
