#!/bin/sh

nx=1000
for i in 1 2 4   ; do
    n=1
    while [ $n -le $nx ] ; do
	cat > input <<EOF
This namelist contains various input parameters for HYDRO runs

&RUN
tend=100
# noutput=10
nstepmax=36
dtoutput=1.
/

&MESH
nx=$nx
ny=$nx
nxystep=$n
prt=0
dx=0.05
boundary_left=1
boundary_right=1
boundary_down=1
boundary_up=1
/

&HYDRO
courant_factor=0.8
niter_riemann=10
/
EOF

	j=$i
	if [ $i -gt 1 ] ; then
	    j=`expr $i / 2`
	fi
	echo " ends nx=$nx step=$n proc=$i"
	make run N="-n$i -N$j -x"

	n=`expr $n \* 2`

    done
done


#EOF
