This namelist contains various input parameters for HYDRO runs

&RUN
tend=100
#noutput=10
nstepmax=10
#dtoutput=.4
/

&MESH
nx=5147
ny=5147
nxystep=480
prt=0
dx=0.05
boundary_left=1
boundary_right=1
boundary_down=1
boundary_up=1
testcase=0
/

&HYDRO
courant_factor=0.8
niter_riemann=10
/
