This namelist contains various input parameters for HYDRO runs

&RUN
tend=300.
#noutput=1
#nstepmax=10
dtoutput=1.
/

&MESH
nx=65535
ny=65535
tilesize=0
morton=1
prt=0
dx=0.05
boundary_left=1
boundary_right=1
boundary_down=1
boundary_up=1
testcase=0
/

&HYDRO
courant_factor=0.8
niter_riemann=10
/
