This namelist contains various input parameters for HYDRO runs

&RUN
tend=1
#noutput=1
nstepmax=10
#dtoutput=.1
ndumpline=2
stepbystep=0
/

&MESH
nx=32
ny=32
tilesize=12
nxystep=10
prt=0
dx=0.05
boundary_left=1
boundary_right=1
boundary_down=1
boundary_up=1
testcase=0
/

&HYDRO
courant_factor=0.8
niter_riemann=10
/
