This namelist contains various input parameters for HYDRO runs

&RUN
tend=1
#noutput=10
nstepmax=30
#dtoutput=.04
/

&MESH
nx=6000
ny=6000
nxystep=1024
prt=0
dx=0.05
boundary_left=1
boundary_right=1
boundary_down=1
boundary_up=1
testcase=0
/

&HYDRO
courant_factor=0.8
niter_riemann=10
/
