This namelist contains various input parameters for HYDRO runs

&RUN
tend=20000
#tend=3
# noutput=1
nstepmax=11
# dtoutput=0.1
# chkpt=1
nimage=-1
nDumpline= 10
stats= 0
/

&MESH0
nx=500
ny=500
nxystep=480
tilesize=64
morton=1
tasked=0
taskeddep=0
prt=0
dx=0.05
boundary_left=1
boundary_right=1
boundary_down=1
boundary_up=1
testcase=0
/

&HYDRO
courant_factor=0.8
niter_riemann=10
/
