This namelist contains various input parameters for HYDRO runs

&RUN
tend=20000
#tend=3
# noutput=1
# nstepmax=20
# dtoutput=0.1
dtimage=10
# chkpt=1
/

&MESH0
nx=2000
ny=2000
nxystep=480
tilesize=60
morton=1
prt=0
dx=0.05
boundary_left=1
boundary_right=1
boundary_down=1
boundary_up=1
testcase=0
/

&HYDRO
courant_factor=0.8
niter_riemann=10
/
