This namelist contains various input parameters for HYDRO runs

&RUN
tend=32000.
#noutput=1
#nstepmax=3000
chkpt=1
#dtoutput=1.
dtimage=10.
/

&MESH
nx=35536
ny=35536
nxystep=480
tilesize=0
morton=1
prt=0
dx=0.05
boundary_left=1
boundary_right=1
boundary_down=1
boundary_up=1
testcase=0
/

&HYDRO
courant_factor=0.8
niter_riemann=10
/
